/*--------------------------------*- C++ -*----------------------------------*\
  =========                 |
  \\      /  F ield         | OpenFOAM: The Open Source CFD Toolbox
   \\    /   O peration     | Website:  https://openfoam.org
    \\  /    A nd           | Version:  11
     \\/     M anipulation  |
\*---------------------------------------------------------------------------*/
FoamFile
{
    format      ascii;
    class       volScalarField;
    location    "0";
    object      omega;
}
// * * * * * * * * * * * * * * * * * * * * * * * * * * * * * * * * * * * * * //

dimensions      [0 0 -1 0 0 0 0];

internalField   uniform 0.12;

boundaryField
{
    symmetry1
    {
        type            symmetry;
    }
	
    symmetry2
    {
        type            symmetry;
    }

    top
    {
        type            omegaWallFunction;
        value           uniform 0.12;
    }
	bottom
    {
        type            omegaWallFunction;
        value           uniform 0.12;
    }
    hot
    {
        type            omegaWallFunction;
        value           uniform 0.12;
    }
    cold
    {
        type            omegaWallFunction;
        value           uniform 0.12;
    }
}


// ************************************************************************* //
