/*--------------------------------*- C++ -*----------------------------------*\
  =========                 |
  \\      /  F ield         | OpenFOAM: The Open Source CFD Toolbox
   \\    /   O peration     | Website:  https://openfoam.org
    \\  /    A nd           | Version:  11
     \\/     M anipulation  |
\*---------------------------------------------------------------------------*/
FoamFile
{
    format      ascii;
    class       volScalarField;
    location    "0";
    object      T;
}
// * * * * * * * * * * * * * * * * * * * * * * * * * * * * * * * * * * * * * //

dimensions      [0 0 0 1 0 0 0];

internalField   uniform 293;

boundaryField
{
    symmetry1
    {
        type            symmetry;
    }
	
    symmetry2
    {
        type            symmetry;
    }


    top
    {
        type            zeroGradient;
    }
	bottom
    {
        type            zeroGradient;
    }
    hot
    {
        type            fixedValue;
        value           uniform 400;
    }

    cold
    {
        type            zeroGradient;
    }
}


// ************************************************************************* //
